#p b3lyp/gen sp scf=tight iop(5/33=1) nosymm extraoverlay

8/7=1,10=90/1;
9/16=-3/6;
6//8;

Test for normal Cartesian geometry input and gen file ended with blank line::
==----------------------------------------------------------------------------==
  E(B3LYP)    =     -56.57630246 A.U.    E(XYG3)     =     -56.53968521 A.U.
==----------------------------------------------------------------------------==

0    1
 N                  0.00000000    0.00000000    0.10882700
 H                  0.00000000    0.94745500   -0.25393100
 H                  0.82052000   -0.47372700   -0.25393100
 H                 -0.82052000   -0.47372700   -0.25393100

N 0
6-311+G(3df,p)
****
@Test008.H  /N

100
205
402
