# XYG3(full)/6-311+G(3df,2p) sp scf=tight

Test for Z-matrix seperated by comma::
==----------------------------------------------------------------------------==
  E(B3LYP)    =     -56.58684704 A.U.    E(XYG3)     =     -56.55574269 A.U.
==----------------------------------------------------------------------------==

0 1
 N
 H, 1,  1.014526
 H, 1,  1.014526, 2,107.5921
 H, 1,  1.014526, 3,107.5921, 2, 116.458
 

