%chk=Test001.chk
# XYG3(full)/6-311+G(3df,2p) sp scf=tight

Test for Oniom-Type input ::
==----------------------------------------------------------------------------==
  E(B3LYP)    =     -56.58684411 A.U.    E(XYG3)     =     -56.55573650 A.U.
==----------------------------------------------------------------------------==

0 1
 N      0           0.00000000    0.00000000    0.10882700  H
 H      0           0.00000000    0.94745500   -0.25393100  L H 3
 H      0           0.82052000   -0.47372700   -0.25393100  H
 H      0          -0.82052000   -0.47372700   -0.25393100  L H 1
 

